[General]
network = UsdIntro
sim-time-limit = 1h

# token pacing: ~2.5 hops/second so the 3D view shows lively motion
*.node[*].hopDelay = 0.4s
